test/data/swing_and_line_to_zip/node.glm
// An infinite source, a line, and a ZIP load

/////////////////////////////////////////////
// BEGIN
/////////////////////////////////////////////

module tape;

clock {
    timestamp '2000-01-01 0:00:00';
    timezone EST+5EDT;
}

module powerflow {
    solver_method NR;
    NR_matrix_file "y_matrix_printout.txt";
    NR_matrix_output_interval PER_CALL;
    NR_matrix_output_references true;
};

object overhead_line_conductor:100 {
    geometric_mean_radius 0.0244;
    resistance 0.306;
}

object overhead_line_conductor:101 {
    geometric_mean_radius 0.00814;
    resistance 0.592;
}

object line_spacing:200 {
    distance_AB 2.5;
    distance_BC 4.5;
    distance_AC 7.0;
    distance_AN 5.656854;
    distance_BN 4.272002;
    distance_CN 5.0;
}

object line_configuration:300 {
    conductor_A overhead_line_conductor:100;
    conductor_B overhead_line_conductor:100;
    conductor_C overhead_line_conductor:100;
    conductor_N overhead_line_conductor:101;
    spacing line_spacing:200;
}

object node {
    name node1;
    phases "ABCN";
    nominal_voltage 2400;
    bustype SWING;
}

object overhead_line:12 {
    phases "ABCN";
    from node1;
    to load1;
    length 2000;
    configuration line_configuration:300;
}

object load {
    name load1;
    phases "ABCN";
    base_power_A +1800000.000+871779.789j;
    base_power_B +1800000.000+871779.789j;
    base_power_C +1800000.000+871779.789j;
    power_pf_A 1;
    power_pf_B 1;
    power_pf_C 1;
    current_pf_A 1;
    current_pf_B 1;
    current_pf_C 1;
    impedance_pf_A 1;
    impedance_pf_B 1;
    impedance_pf_C 1;
    impedance_fraction_A 0.20;
    current_fraction_A 0.40;
    power_fraction_A 0.40;
    impedance_fraction_B 0.20;
    current_fraction_B 0.40;
    power_fraction_B 0.40;
    impedance_fraction_C 0.20;
    current_fraction_C 0.40;
    power_fraction_C 0.40;
    nominal_voltage 2400;
}


object voltdump {
     filename result.csv;
     mode RECT;
}
